&NAMFPC
    CFPFMT = 'MODEL',
    MFP2DF = 134, 152,
    MFP3DFP = 129, 130, 131, 132, 133, 135, 138, 157,
    MFP3DFS = 54, 129, 130, 131, 132, 133, 135, 157, 246, 247, 248, 126020,
              126021, 126022, 
    MFPPHY = 8, 31, 33, 39, 40, 41, 42, 44, 45, 78, 79, 134, 137, 139, 141,
             143, 144, 146, 147, 151, 164, 165, 166, 167, 168, 169, 170,
             175, 176, 177, 178, 179, 180, 181, 182, 183, 185, 201, 202,
             205, 208, 209, 210, 212, 228, 235, 236, 238, 126001, 126002, 126040, 126041,
             126042, 126043, 126044, 126045, 126046, 126068, 126069, 126070, 
             126071, 126072, 126073, 126074, 126075, 
    NFP2DF = 2,
    NFP3DFP = 8,
    NFP3DFS = 14,
    NFPPHY = 65,
    NRFP3S = -99,
    RFP3P = 100000.0, 92500.0, 85000.0, 70000.0, 60000.0, 50000.0, 40000.0,
            30000.0, 25000.0, 20000.0, 17000.0, 15000.0, 13000.0, 11500.0,
            10000.0, 9000.0, 8000.0, 7000.0, 5000.0, 3000.0, 2000.0, 1500.0,
            1000.0, 700.0, 500.0, 300.0, 200.0, 150.0, 100.0, 70.0, 50.0,
            40.0, 30.0, 20.0, 15.0, 10.0, 7.0, 5.0, 3.0, 
/
