&NAMFPC
    CFPFMT = 'MODEL',
    MFP2DF = 129, 134, 152,
    MFPPHY = 8, 31, 33, 39, 40, 41, 42, 44, 45, 78, 79, 134, 137, 139, 141,
             143, 144, 146, 147, 151, 164, 165, 166, 167, 168, 169, 170,
             175, 176, 177, 178, 179, 180, 181, 182, 183, 185, 201, 202,
             205, 208, 209, 210, 212, 228, 235, 236, 238, 126001, 126002, 126040, 126041,
             126042, 126043, 126044, 126045, 126046, 126068, 126069, 126070,
             126071, 126072, 126073, 126074, 126075,
    NFP2DF = 3,
    NFPPHY = 65,
/
